tests/data/power_flow/step-up-transformer/max-voltage-tap/sym_output.json
{
  "version": "1.0",
  "type": "sym_output",
  "is_batch": false,
  "attributes": {},
  "data": {
    "node": [
      {"id": 2, "energized": 1, "u_pu": 0.999999490008046, "u": 9999.994900080461, "u_angle": -4.976345265642619e-08, "p": 1002.625309320219, "q": 5025.090547455405},
      {"id": 4, "energized": 1, "u_pu": 1.015409600105984, "u": 406.1638400423938, "u_angle": -2.618471703642352, "p": -999.9999999997572, "q": -4999.999999999773}
    ],
    "transformer": [
      {"id": 3, "energized": 1, "loading": 0.05124138222278467, "p_from": 1002.625309320219, "q_from": 5025.090547455405, "i_from": 0.2958424090769806, "s_from": 5124.138222278467, "p_to": -999.9999999997572, "q_to": -4999.999999999773, "i_to": 7.248110241592451, "s_to": 5099.019513592515}
    ],
    "sym_load": [
      {"id": 5, "energized": 1, "p": 1000, "q": 5000, "i": 7.248110241592837, "s": 5099.019513592785, "pf": 0.196116135138184}
    ],
    "source": [
      {"id": 1, "energized": 1, "p": 1002.625309422622, "q": 5025.090548033967, "i": 0.2958424091108952, "s": 5124.138222865883, "pf": 0.1956671084609936}
    ],
    "transformer_tap_regulator": [
      {"id": 6, "energized": 1, "tap_pos": -2}
    ]
  }
}